
     RDKit          3D

 39 40  0  0  0  0  0  0  0  0999 V2000
   -6.0945   -1.4462   -0.4195 C   0  0  0  0  0  0  0  0  0  0  0  0
   -4.7233   -1.0898   -0.0399 C   0  0  0  0  0  0  0  0  0  0  0  0
   -3.7915   -1.9777    0.4579 C   0  0  0  0  0  0  0  0  0  0  0  0
   -2.5118   -1.5775    0.7978 C   0  0  0  0  0  0  0  0  0  0  0  0
   -2.0950   -0.2635    0.6572 C   0  0  0  0  0  0  0  0  0  0  0  0
   -0.7444    0.0931    1.0299 C   0  0  0  0  0  0  0  0  0  0  0  0
   -0.0112   -0.8525    1.4740 O   0  0  0  0  0  0  0  0  0  0  0  0
   -0.2615    1.4228    0.9080 N   0  0  0  0  0  0  0  0  0  0  0  0
    1.1025    1.7131    1.2987 C   0  0  0  0  0  0  0  0  0  0  0  0
    2.0686    0.9069    0.4811 C   0  0  0  0  0  0  0  0  0  0  0  0
    1.5763    0.1467   -0.3704 O   0  0  0  0  0  0  0  0  0  0  0  0
    3.4515    1.0340    0.6981 N   0  0  0  0  0  0  0  0  0  0  0  0
    4.4766    0.3506    0.0167 C   0  0  0  0  0  0  0  0  0  0  0  0
    5.7941    0.6115    0.3766 C   0  0  0  0  0  0  0  0  0  0  0  0
    6.8397   -0.0246   -0.2523 C   0  0  0  0  0  0  0  0  0  0  0  0
    6.6398   -0.9459   -1.2632 C   0  0  0  0  0  0  0  0  0  0  0  0
    7.6837   -1.5575   -1.8656 F   0  0  0  0  0  0  0  0  0  0  0  0
    5.3518   -1.2107   -1.6256 C   0  0  0  0  0  0  0  0  0  0  0  0
    4.3000   -0.5672   -0.9890 C   0  0  0  0  0  0  0  0  0  0  0  0
   -3.0174    0.6260    0.1621 C   0  0  0  0  0  0  0  0  0  0  0  0
   -4.2960    0.2354   -0.1795 C   0  0  0  0  0  0  0  0  0  0  0  0
   -5.2324    1.2513   -0.7061 C   0  0  0  0  0  0  0  0  0  0  0  0
   -6.8865   -1.0435    0.2354 H   0  0  0  0  0  0  0  0  0  0  0  0
   -6.1902   -2.5588   -0.3482 H   0  0  0  0  0  0  0  0  0  0  0  0
   -6.2910   -1.2253   -1.5060 H   0  0  0  0  0  0  0  0  0  0  0  0
   -4.0896   -3.0109    0.5783 H   0  0  0  0  0  0  0  0  0  0  0  0
   -1.8549   -2.3555    1.1812 H   0  0  0  0  0  0  0  0  0  0  0  0
   -0.8518    2.1999    0.5474 H   0  0  0  0  0  0  0  0  0  0  0  0
    1.3794    2.7663    1.1064 H   0  0  0  0  0  0  0  0  0  0  0  0
    1.2870    1.5118    2.3711 H   0  0  0  0  0  0  0  0  0  0  0  0
    3.7381    1.7172    1.4544 H   0  0  0  0  0  0  0  0  0  0  0  0
    6.0261    1.3234    1.1623 H   0  0  0  0  0  0  0  0  0  0  0  0
    7.8368    0.2108    0.0613 H   0  0  0  0  0  0  0  0  0  0  0  0
    5.1696   -1.9276   -2.4139 H   0  0  0  0  0  0  0  0  0  0  0  0
    3.3161   -0.8306   -1.3323 H   0  0  0  0  0  0  0  0  0  0  0  0
   -2.7464    1.6637    0.0317 H   0  0  0  0  0  0  0  0  0  0  0  0
   -5.4810    1.9184    0.1488 H   0  0  0  0  0  0  0  0  0  0  0  0
   -6.1555    0.8493   -1.1047 H   0  0  0  0  0  0  0  0  0  0  0  0
   -4.7116    1.9128   -1.4562 H   0  0  0  0  0  0  0  0  0  0  0  0
  1  2  1  0
  2  3  2  0
  3  4  1  0
  4  5  2  0
  5  6  1  0
  6  7  2  0
  6  8  1  0
  8  9  1  0
  9 10  1  0
 10 11  2  0
 10 12  1  0
 12 13  1  0
 13 14  2  0
 14 15  1  0
 15 16  2  0
 16 17  1  0
 16 18  1  0
 18 19  2  0
  5 20  1  0
 20 21  2  0
 21 22  1  0
 21  2  1  0
 19 13  1  0
  1 23  1  0
  1 24  1  0
  1 25  1  0
  3 26  1  0
  4 27  1  0
  8 28  1  0
  9 29  1  0
  9 30  1  0
 12 31  1  0
 14 32  1  0
 15 33  1  0
 18 34  1  0
 19 35  1  0
 20 36  1  0
 22 37  1  0
 22 38  1  0
 22 39  1  0
M  END
